trunk gridlab-d-code-StrategicConsumer/powerflow/autotest/test_dutycycle.glm
//Input feeder information for IEEE 13 node with different cases.
//Started on 10/21/09. This version created 12-Mar-2015 10:14:15.

clock {
     timezone PST+8PDT;
     starttime '2000-08-01 00:00:00';
     stoptime '2000-08-02 00:00:00';
}

#include "light_schedule.glm";
#include "water_and_setpoint_schedule.glm";
#define stylesheet=http://gridlab-d.svn.sourceforge.net/viewvc/gridlab-d/trunk/core/gridlabd-2_0
//#set minimum_timestep=60;
#set profiler=1;
#set relax_naming_rules=1;

module tape;
module climate;
module residential {
     implicit_enduses NONE;
};
module powerflow {
     solver_method FBS;
     NR_iteration_limit 50;
};

module market;

class auction {
    double current_price_mean_30min;
    double current_price_stdev_30min;
}
object auction {
    name Market_1;
    special_mode NONE;
    unit kW;
    period 300;
    init_price 30;
    init_stdev 5;
	object recorder {
		property current_market.clearing_price,current_market.clearing_quantity,current_market.seller_total_quantity,current_market.buyer_total_quantity;
		file "auction_recorder.csv";
		interval 300;
	};
    warmup 0;
}

 object stub_bidder{
	 name seller1;
	 role SELLER; 
	 bid_period 300;
	 market Market_1;
	 price 0.40;
	 quantity 3000;
}

object climate {
     name "Seattle WA";
     tmyfile "WA-Seattle.tmy2";
     interpolate QUADRATIC;
};

object overhead_line_conductor:100 {
	geometric_mean_radius 0.0244;
	resistance 0.306;
}

object overhead_line_conductor:101 {
	geometric_mean_radius 0.00814;
	resistance 0.592;
}

object line_spacing:200 {
	distance_AB 2.5;
	distance_BC 4.5;
	distance_AC 7.0;
	distance_AN 5.656854;
	distance_BN 4.272002;
	distance_CN 5.0;
}

object line_configuration:300 {
	conductor_A overhead_line_conductor:100;
	conductor_B overhead_line_conductor:100;
	conductor_C overhead_line_conductor:100;
	conductor_N overhead_line_conductor:101;
	spacing line_spacing:200;
}

object transformer_configuration:400 {
	connect_type WYE_WYE;
	power_rating 6000;
	primary_voltage 12470;
	secondary_voltage 4160;
	resistance 0.01;
	reactance 0.06;
}

object node:1 {
	phases "ABCN";
	bustype SWING;
	voltage_A +7199.558+0.000j;
	voltage_B -3599.779-6235.000j;
	voltage_C -3599.779+6235.000j;
	nominal_voltage 7200;
}

object overhead_line:12 {
	phases "ABCN";
	from node:1;
	to node:2;
	length 2000;
	configuration line_configuration:300;
}

object node:2 {
	phases "ABCN";
	voltage_A +7199.558+0.000j;
	voltage_B -3599.779-6235.000j;
	voltage_C -3599.779+6235.000j;
	nominal_voltage 7200;
}

object transformer:23 {
	phases "ABCN";
	from node:2;
	to node:3;
	configuration transformer_configuration:400;
}

object node:3 {
	phases "ABCN";
	voltage_A +2401.777+0.000j;
	voltage_B -1200.889-2080.000j;
	voltage_C -1200.889+2080.000j;
	nominal_voltage 2400;
}

object overhead_line:34 {
	phases "ABCN";
	from node:3;
	to load:4;
	length 2500;
	configuration line_configuration:300;
}

object load:4 {
	phases "ABCN";
	name load4;
	voltage_A +2401.777+0.000j;
	voltage_B -1200.889-2080.000j;
	voltage_C -1200.889+2080.000j;
	constant_power_A +1000;
	constant_power_B +1000;
	constant_power_C +1000;
	nominal_voltage 2400;
}

object transformer_configuration {
		name AS_config;
		connect_type SINGLE_PHASE_CENTER_TAPPED;
		install_type POLETOP;
		powerA_rating 100;
		primary_voltage 2401.777;
		secondary_voltage 120.000;
		impedance 0.0006+0.000136j;

}

object transformer {
	phases AS;
	configuration AS_config;
	from load4;
	to triplex_1;
	nominal_voltage 2401.777;
	object recorder {
		file test_dutycycle.csv;
		interval 60;
		property power_out.real;
	};
	
}

object triplex_node {
	name triplex_1;
	nominal_voltage 120;
	phases AS;
}

object triplex_line_configuration {
     name TPLconfig;
     conductor_1 object triplex_line_conductor {
          resistance 0.97;
          geometric_mean_radius 0.0111;
     };

     conductor_2 object triplex_line_conductor {
          resistance 0.97;
          geometric_mean_radius 0.0111;
     };
     conductor_N object triplex_line_conductor {
          resistance 0.97;
          geometric_mean_radius 0.0111;
     };
     insulation_thickness 0.08;
     diameter 0.368;
}

object triplex_line {
	configuration TPLconfig;
	length 50;
	phases AS;
	from triplex_1;
	name tpl1;
	to triplex_2;	
}

object triplex_meter {
	name triplex_2;
	nominal_voltage 120;
	phases AS;
}

object house  {
     parent triplex_2;
     name house 3B_tm_B_3_645;
     floor_area 1719;
     schedule_skew -1703;
     heating_system_type HEAT_PUMP;
     heating_COP 3.2;
     cooling_system_type ELECTRIC;

     object controller  {
           schedule_skew -1703;
           market Market_1;
           bid_mode ON;
           control_mode DOUBLE_RAMP;
           resolve_mode DEADBAND;
           slider_setting_heat 0.500;
           slider_setting_cool 0.500;
           heating_base_setpoint heating7*1;
           cooling_base_setpoint cooling5*1;
           period 300;
           average_target current_price_mean_30min;
           standard_deviation_target current_price_stdev_30min;
           target air_temperature;
           heating_setpoint heating_setpoint;
           heating_demand last_heating_load;
           cooling_setpoint cooling_setpoint;
           cooling_demand last_cooling_load;
           deadband thermostat_deadband;
           total hvac_load;
           load hvac_load;
           state power_state;
       };

     thermal_integrity_level 6;
     air_temperature 70;
     mass_temperature 70;
     cooling_COP 4.0;
     object ZIPload {
           base_power LIGHTS*1.10;
           schedule_skew -1703;
           heatgain_fraction 0.9;
           power_pf 1.000;
           current_pf 1.000;
           impedance_pf 1.000;
           impedance_fraction 0.300000;
           current_fraction 0.300000;
           power_fraction 0.400000;
     };
     object waterheater {
          schedule_skew -1703;
          tank_volume 50;
          heating_element_capacity 4.7 kW;
          tank_setpoint 126.0;
          temperature 135;
          thermostat_deadband 4.2;
          location INSIDE;
          tank_UA 3.3;
          demand water9*1;
          object passive_controller  {
          	  period 300;
              control_mode PROBABILITY_OFF;
          	  distribution_type NORMAL;
          	  observation_object Market_1;
          	  expectation_object Market_1;
          	  comfort_level 1.00;
          	  state_property override;
          	  observation_property current_market.clearing_price;
          	  stdev_observation_property current_price_stdev_30min;
          	  expectation_property current_price_mean_30min;
          };
     };

}

object house  {
     parent triplex_2;
     name house 4B_tm_B_4_645;
     floor_area 2109;
     schedule_skew 1472;
     heating_system_type HEAT_PUMP;
     heating_COP 2.8;
     cooling_system_type ELECTRIC;

     object controller  {
           schedule_skew 1472;
           market Market_1;
           bid_mode ON;
           control_mode DOUBLE_RAMP;
           resolve_mode DEADBAND;
           slider_setting_heat 0.500;
           slider_setting_cool 0.500;
           heating_base_setpoint heating3*1;
           cooling_base_setpoint cooling4*1;
           period 300;
           average_target current_price_mean_30min;
           standard_deviation_target current_price_stdev_30min;
           target air_temperature;
           heating_setpoint heating_setpoint;
           heating_demand last_heating_load;
           cooling_setpoint cooling_setpoint;
           cooling_demand last_cooling_load;
           deadband thermostat_deadband;
           total hvac_load;
           load hvac_load;
           state power_state;
       };

     thermal_integrity_level 5;
     air_temperature 70;
     mass_temperature 70;
     cooling_COP 3.5;
     object ZIPload {
           base_power LIGHTS*1.15;
           schedule_skew 1472;
           heatgain_fraction 0.9;
           power_pf 1.000;
           current_pf 1.000;
           impedance_pf 1.000;
           impedance_fraction 0.300000;
           current_fraction 0.300000;
           power_fraction 0.400000;
     };
     object waterheater {
          schedule_skew 1472;
          tank_volume 50;
          heating_element_capacity 4.5 kW;
          tank_setpoint 136.3;
          temperature 135;
          thermostat_deadband 2.4;
          location INSIDE;
          tank_UA 3.4;
          demand water2*1;
          object passive_controller  {
          	  period 300;
              control_mode PROBABILITY_OFF;
          	  distribution_type NORMAL;
          	  observation_object Market_1;
          	  expectation_object Market_1;
          	  comfort_level 1.00;
          	  state_property override;
          	  observation_property current_market.clearing_price;
          	  stdev_observation_property current_price_stdev_30min;
          	  expectation_property current_price_mean_30min;
          };
     };

}